%nprocshared=8
%mem=10gb
%chk=fluorene_NICS_Scan.chk
#p nmr=giao b3lyp/6-31g(d) geom=connectivity

File Created by py.Aroma 3

0 1
H      -0.000033      2.483012      -0.879198
C      3.009779      -1.203774      -0.000148
C      3.449819      0.111756      -0.000139
C      2.540004      1.164723      -0.000082
C      1.189207      0.877596      -0.000032
C      0.744188      -0.449011      -0.000038
C      1.651439      -1.496204      -0.000089
H      3.732059      -2.010202      -0.000193
H      4.512030      0.321418      -0.000185
H      2.892120      2.188584      -0.000081
H      1.314262      -2.524941      -0.000096
C      0.000000      1.837208      0.000026
H      0.000034      2.482988      0.879268
C      -1.189207      0.877596      0.000057
C      -2.540004      1.164723      0.000108
C      -3.449819      0.111756      0.000162
C      -3.009780      -1.203774      0.000094
C      -1.651439      -1.496204      0.000054
C      -0.744189      -0.449011      0.000024
H      -2.892120      2.188584      0.000134
H      -4.512030      0.321418      0.000207
H      -3.732059      -2.010202      0.000120
H      -1.314262      -2.524941      0.000036
Bq     -3.229799    -0.546009     1.000000
Bq     -3.040209    -0.482326     1.000000
Bq     -2.850619    -0.418643     1.000000
Bq     -2.661029    -0.354960     1.000000
Bq     -2.471438    -0.291277     1.000000
Bq     -2.281848    -0.227594     1.000000
Bq     -2.092258    -0.163911     1.000000
Bq     -1.902668    -0.100227     1.000000
Bq     -1.713077    -0.036544     1.000000
Bq     -1.523487    0.027139     1.000000
Bq     -1.333897    0.090822     1.000000
Bq     -1.144307    0.154505     1.000000
Bq     -0.954716    0.218188     1.000000
Bq     -0.765126    0.281871     1.000000
Bq     -0.575536    0.345554     1.000000
Bq     -0.385946    0.409237     1.000000
Bq     -0.196355    0.472920     1.000000
Bq     -0.006765    0.536603     1.000000
Bq     0.182825    0.477465     1.000000
Bq     0.372415    0.413782     1.000000
Bq     0.562006    0.350099     1.000000
Bq     0.751596    0.286416     1.000000
Bq     0.941186    0.222733     1.000000
Bq     1.130776    0.159049     1.000000
Bq     1.320367    0.095366     1.000000
Bq     1.509957    0.031683     1.000000
Bq     1.699547    -0.032000     1.000000
Bq     1.889137    -0.095683     1.000000
Bq     2.078728    -0.159366     1.000000
Bq     2.268318    -0.223049     1.000000
Bq     2.457908    -0.286732     1.000000
Bq     2.647498    -0.350415     1.000000
Bq     2.837089    -0.414098     1.000000
Bq     3.026679    -0.477781     1.000000
Bq     3.216269    -0.541464     1.000000

1
2
3
4
5
6
7
8
9
10
11
12
13
14
15
16
17
18
19
20
21
22
23
24
25
26
27
28
29
30
31
32
33
34
35
36
37
38
39
40
41
42
43
44
45
46
47
48
49
50
51
52
53
54
55
56
57
58

